Circuit: * C:\Users\usr\Documents\UT_Framework_matlab\SPICE_Files\cv_testbed_wolf.asc

