Circuit: * C:\Users\usr\Documents\UT_Framework_matlab\SPICE_Files\cv_testbed.asc

Direct Newton iteration for .op point succeeded.

Date: Wed Apr 07 10:25:37 2021
Total elapsed time: 0.022 seconds.

tnom = 27
temp = 27
method = trap
totiter = 4
traniter = 0
tranpoints = 0
accept = 0
rejected = 0
matrix size = 21
fillins = 0
solver = Normal
Matrix Compiler1:      50 opcodes
Matrix Compiler2: 1.42 KB object code size
