Circuit: * No comment

Direct Newton iteration for .op point succeeded.

Date: Wed Apr 07 09:56:17 2021
Total elapsed time: 3.735 seconds.

tnom = 27
temp = 27
method = trap
totiter = 723243
traniter = 723239
tranpoints = 311794
accept = 310842
rejected = 952
matrix size = 12
fillins = 1
solver = Normal
Matrix Compiler1: 634 bytes object code size  0.1/0.1/[0.1]
Matrix Compiler2: off  [0.1]/0.1/0.1

