Circuit: * C:\Users\andre\Documents\Research\Automated_SPICE_Modeling\UT_Framework_3.0.1\SPICE_Files\foster_test.asc

Per .tran options, skipping operating point for transient analysis.
Heightened Def Con from 0.00800991 to 0.00800991

Date: Thu Mar 12 15:49:21 2020
Total elapsed time: 65.455 seconds.

tnom = 27
temp = 27
method = modified trap
totiter = 35715715
traniter = 35715715
tranpoints = 6541068
accept = 4327046
rejected = 2214023
matrix size = 27
fillins = 0
solver = Normal
Matrix Compiler1: 1.15 KB object code size  0.2/0.1/[0.1]
Matrix Compiler2: off  [0.1]/0.2/0.1

