Circuit: * C:\Users\andre\Documents\Research\Automated_SPICE_Modeling\UT_Framework_3.0.1\SPICE_Files\foster_test_matlab.asc

Idr2: Removing PWL point (1.02096e-009,1)
Idr2: Removing PWL point (1.94217e-009,0)
Idr2: Removing PWL point (2.1102e-009,1)
Idr2: Removing PWL point (4.01424e-009,0)
Idr2: Removing PWL point (4.36154e-009,1)
Idr2: Removing PWL point (8.29696e-009,0)
Idr2: Removing PWL point (9.01478e-009,1)
Idr2: Removing PWL point (1.71488e-008,0)
Idr2: Removing PWL point (1.86325e-008,1)
Idr2: Removing PWL point (3.54446e-008,0)
Idr2: Removing PWL point (3.85111e-008,1)
Idr2: Removing PWL point (7.32597e-008,0)
Idr2: Removing PWL point (7.95978e-008,1)
Idr2: Removing PWL point (1.51419e-007,0)
Idr2: Removing PWL point (1.64519e-007,1)
Idr2: Removing PWL point (3.12965e-007,0)
Idr2: Removing PWL point (3.40041e-007,1)
Idr2: Removing PWL point (6.46861e-007,0)
Idr2: Removing PWL point (7.02824e-007,1)
Idr2: Removing PWL point (1.33698e-006,0)
Idr2: Removing PWL point (1.45265e-006,1)
Idr2: Removing PWL point (2.76339e-006,0)
Idr2: Removing PWL point (3.00246e-006,1)
Idr2: Removing PWL point (5.71159e-006,0)
Idr2: Removing PWL point (6.20573e-006,1)
Idr2: Removing PWL point (1.18052e-005,0)
Idr2: Removing PWL point (1.28265e-005,1)
Idr2: Removing PWL point (2.43999e-005,0)
Idr2: Removing PWL point (2.65108e-005,1)
Idr2: Removing PWL point (5.04316e-005,0)
Idr2: Removing PWL point (5.47947e-005,1)
Idr2: Removing PWL point (0.000104236,0)
Idr2: Removing PWL point (0.000113254,1)
Idr2: Removing PWL point (0.000215443,0)
Idr2: Removing PWL point (0.000234083,1)
Idr2: Removing PWL point (0.000445296,0)
Idr2: Removing PWL point (0.000483821,1)
Idr2: Removing PWL point (0.000920373,0)
Idr2: Removing PWL point (0.001,1)
Idr2: Removing PWL point (0.0019023,0)
Idr2: Removing PWL point (0.00206688,1)
Idr2: Removing PWL point (0.00393183,0)
Idr2: Removing PWL point (0.00427199,1)
Idr2: Removing PWL point (0.00812662,0)
Idr2: Removing PWL point (0.0088297,1)
Idr2: Removing PWL point (0.0167967,0)
Idr2: Removing PWL point (0.0182499,1)
Idr2: Removing PWL point (0.0347169,0)
Idr2: Removing PWL point (0.0377204,1)
Idr2: Removing PWL point (0.0717556,0)
Idr2: Removing PWL point (0.0779636,1)
Idr2: Removing PWL point (0.14831,0)
Idr2: Removing PWL point (0.161141,1)
Idr2: Removing PWL point (0.30654,0)
Idr2: Removing PWL point (0.33306,1)
Idr2: Removing PWL point (0.63358,0)
Idr2: Removing PWL point (0.688395,1)
Idr1: Removing PWL point (1.02096e-009,1)
Idr1: Removing PWL point (1.94217e-009,0)
Idr1: Removing PWL point (2.1102e-009,1)
Idr1: Removing PWL point (4.01424e-009,0)
Idr1: Removing PWL point (4.36154e-009,1)
Idr1: Removing PWL point (8.29696e-009,0)
Idr1: Removing PWL point (9.01478e-009,1)
Idr1: Removing PWL point (1.71488e-008,0)
Idr1: Removing PWL point (1.86325e-008,1)
Idr1: Removing PWL point (3.54446e-008,0)
Idr1: Removing PWL point (3.85111e-008,1)
Idr1: Removing PWL point (7.32597e-008,0)
Idr1: Removing PWL point (7.95978e-008,1)
Idr1: Removing PWL point (1.51419e-007,0)
Idr1: Removing PWL point (1.64519e-007,1)
Idr1: Removing PWL point (3.12965e-007,0)
Idr1: Removing PWL point (3.40041e-007,1)
Idr1: Removing PWL point (6.46861e-007,0)
Idr1: Removing PWL point (7.02824e-007,1)
Idr1: Removing PWL point (1.33698e-006,0)
Idr1: Removing PWL point (1.45265e-006,1)
Idr1: Removing PWL point (2.76339e-006,0)
Idr1: Removing PWL point (3.00246e-006,1)
Idr1: Removing PWL point (5.71159e-006,0)
Idr1: Removing PWL point (6.20573e-006,1)
Idr1: Removing PWL point (1.18052e-005,0)
Idr1: Removing PWL point (1.28265e-005,1)
Idr1: Removing PWL point (2.43999e-005,0)
Idr1: Removing PWL point (2.65108e-005,1)
Idr1: Removing PWL point (5.04316e-005,0)
Idr1: Removing PWL point (5.47947e-005,1)
Idr1: Removing PWL point (0.000104236,0)
Idr1: Removing PWL point (0.000113254,1)
Idr1: Removing PWL point (0.000215443,0)
Idr1: Removing PWL point (0.000234083,1)
Idr1: Removing PWL point (0.000445296,0)
Idr1: Removing PWL point (0.000483821,1)
Idr1: Removing PWL point (0.000920373,0)
Idr1: Removing PWL point (0.001,1)
Idr1: Removing PWL point (0.0019023,0)
Idr1: Removing PWL point (0.00206688,1)
Idr1: Removing PWL point (0.00393183,0)
Idr1: Removing PWL point (0.00427199,1)
Idr1: Removing PWL point (0.00812662,0)
Idr1: Removing PWL point (0.0088297,1)
Idr1: Removing PWL point (0.0167967,0)
Idr1: Removing PWL point (0.0182499,1)
Idr1: Removing PWL point (0.0347169,0)
Idr1: Removing PWL point (0.0377204,1)
Idr1: Removing PWL point (0.0717556,0)
Idr1: Removing PWL point (0.0779636,1)
Idr1: Removing PWL point (0.14831,0)
Idr1: Removing PWL point (0.161141,1)
Idr1: Removing PWL point (0.30654,0)
Idr1: Removing PWL point (0.33306,1)
Idr1: Removing PWL point (0.63358,0)
Idr1: Removing PWL point (0.688395,1)
Direct Newton iteration for .op point succeeded.

Date: Fri Mar 13 14:13:27 2020
Total elapsed time: 0.061 seconds.

tnom = 27
temp = 27
method = modified trap
totiter = 13665
traniter = 13662
tranpoints = 6127
accept = 5331
rejected = 796
matrix size = 18
fillins = 0
solver = Normal
Matrix Compiler1: 782 bytes object code size  0.2/0.1/[0.1]
Matrix Compiler2: 1.17 KB object code size  0.1/0.2/[0.1]

