Circuit: * C:\Users\andre\Documents\Research\Automated_SPICE_Modeling\UT_Framework_3.0.1\SPICE_Files\fwd_curves.asc

Questionable use of curly braces in "b§rd dx d1 r={v(nd,0)}"
    Error: undefined symbol in: "[v](nd,0)"
Questionable use of curly braces in "b§rg gx g1 r={v(ng,0)}"
    Error: undefined symbol in: "[v](ng,0)"
Questionable use of curly braces in "b§rs s1 sx r={v(ns,0)}"
    Error: undefined symbol in: "[v](ns,0)"
.dc sweep increment has wrong sign -- fixing...
Direct Newton iteration failed to find .op point.  (Use ".option noopiter" to skip.)
Starting Gmin stepping
Gmin = 10
Gmin = 1.07374
Gmin = 0.115292
Gmin = 0.0123794
Gmin = 0.00132923
Gmin = 0.000142725
Gmin = 1.5325e-005
Gmin = 1.6455e-006
Gmin = 1.76685e-007
Gmin = 1.89714e-008
Gmin = 2.03704e-009
Gmin = 2.18725e-010
vernier = 0.5
Gmin = 4.07733e-011
vernier = 0.25
vernier = 0.125
vernier = 0.0625
vernier = 0.03125
vernier = 0.015625
Gmin = 3.59926e-011
vernier = 0.0078125
vernier = 0.00390625
vernier = 0.00195313
vernier = 0.000976563
vernier = 0.000488281
Gmin = 0
Gmin stepping failed

Starting source stepping with srcstepmethod=0
Source Step = 3.0303%
Source Step = 33.3333%
Source Step = 42.4242%
Source Step = 43.3712%
vernier = 0.00390625
Source Step = 43.4126%
Source Step = 43.4422%
Source Step = 43.4718%
Source Step = 43.5014%
Source Step = 43.531%
Starting source stepping with srcstepmethod=1
Source Step = 3.0303%
Source Step = 33.3333%
Source Step = 63.6364%
Source Step = 77.2727%
vernier = 0.0625
Source stepping failed

Pseudo Transient succeeded in finding the operating point at 200.001 ms.
.step vgs=10
Direct Newton iteration failed to find .op point.  (Use ".option noopiter" to skip.)
Starting Gmin stepping
Gmin = 10
Gmin = 1.07374
Gmin = 0.115292
Gmin = 0.0123794
Gmin = 0.00132923
Gmin = 0.000142725
Gmin = 1.5325e-005
Gmin = 1.6455e-006
Gmin = 1.76685e-007
Gmin = 1.89714e-008
Gmin = 2.03704e-009
Gmin = 2.18725e-010
vernier = 0.5
Gmin = 4.07733e-011
vernier = 0.25
vernier = 0.333333
Gmin = 2.19616e-011
vernier = 0.166667
vernier = 0.0833333
vernier = 0.0416667
vernier = 0.0208333
vernier = 0.0104167
Gmin = 2.19616e-011
vernier = 0.00520833
vernier = 0.00260417
vernier = 0.00130208
vernier = 0.000651042
vernier = 0.000488281
Gmin = 0
Gmin stepping failed

Starting source stepping with srcstepmethod=0
Source Step = 3.0303%
Source Step = 33.3333%
Source Step = 51.5152%
Source Step = 53.2197%
Source Step = 53.8116%
Source Step = 53.8382%
Source Step = 53.8678%
Starting source stepping with srcstepmethod=1
Source Step = 3.0303%
Source Step = 33.3333%
Source Step = 46.9697%
Source Step = 49.9053%
vernier = 0.00390625
Source Step = 49.9023%
Source stepping failed

Pseudo Transient succeeded in finding the operating point at 200.054 ms.
.step vgs=12
Direct Newton iteration failed to find .op point.  (Use ".option noopiter" to skip.)
Starting Gmin stepping
Gmin = 10
Gmin = 1.07374
Gmin = 0.115292
Gmin = 0.0123794
Gmin = 0.00132923
Gmin = 0.000142725
Gmin = 1.5325e-005
Gmin = 1.6455e-006
Gmin = 1.76685e-007
Gmin = 1.89714e-008
Gmin = 2.03704e-009
Gmin = 2.18725e-010
vernier = 0.5
vernier = 0.25
Gmin = 1.02813e-010
vernier = 0.125
vernier = 0.0625
vernier = 0.03125
vernier = 0.015625
vernier = 0.0078125
vernier = 0.00390625
vernier = 0.00195313
Gmin = 9.10734e-011
vernier = 0.000976563
vernier = 0.000488281
Gmin = 0
Gmin stepping failed

Starting source stepping with srcstepmethod=0
Source Step = 3.0303%
Source Step = 33.3333%
Source Step = 51.5625%
vernier = 0.00390625
Source Step = 51.5418%
Source Step = 51.5714%
Source Step = 51.601%
Source Step = 51.6306%
Starting source stepping with srcstepmethod=1
Source Step = 3.0303%
Source Step = 25.7576%
Source Step = 33.3333%
Source Step = 36.7424%
Source Step = 36.772%
Source stepping failed

Pseudo Transient succeeded in finding the operating point at 200.001 ms.
.step vgs=14
.step vgs=16
Direct Newton iteration failed to find .op point.  (Use ".option noopiter" to skip.)
Starting Gmin stepping
Gmin = 10
Gmin = 1.07374
Gmin = 0.115292
Gmin = 0.0123794
Gmin = 0.00132923
Gmin = 0.000142725
Gmin = 1.5325e-005
Gmin = 1.6455e-006
Gmin = 1.76685e-007
Gmin = 1.89714e-008
Gmin = 2.03704e-009
vernier = 0.5
Gmin = 3.79731e-010
vernier = 0.666667
vernier = 0.333333
Gmin = 1.48405e-010
vernier = 0.166667
vernier = 0.222222
Gmin = 1.05595e-010
vernier = 0.296296
vernier = 0.148148
vernier = 0.074074
vernier = 0.037037
vernier = 0.0185185
vernier = 0.00925925
vernier = 0.00462963
Gmin = 8.8236e-011
vernier = 0.00231481
vernier = 0.00115741
vernier = 0.000578703
vernier = 0.000434027
Gmin = 0
Gmin stepping failed

Starting source stepping with srcstepmethod=0
Source Step = 3.0303%
Source Step = 33.3333%
Source Step = 40.1515%
Source Step = 42.9451%
Source Step = 43.0664%
Source Step = 43.096%
Source Step = 43.1256%
Source Step = 43.1552%
Source Step = 43.1848%
Starting source stepping with srcstepmethod=1
Source Step = 3.0303%
Source Step = 33.3333%
Source Step = 50.1894%
Source Step = 50.4261%
vernier = 0.000976563
Source stepping failed

Pseudo Transient succeeded in finding the operating point at 200.166 ms.
.step vgs=18
.step vgs=20

Date: Thu Mar 12 09:19:48 2020
Total elapsed time: 26.889 seconds.

tnom = 27
temp = 27
method = trap
totiter = 8046945
traniter = 0
tranpoints = 0
accept = 0
rejected = 142435
matrix size = 22
fillins = 29
solver = Normal
Matrix Compiler1: 2.71 KB object code size  0.4/0.3/[0.1]
Matrix Compiler2: 2.21 KB object code size  0.2/0.2/[0.1]

