Circuit: * C:\Users\andre\Documents\Research\Automated_SPICE_Modeling\UT_Framework_3.0.1\SPICE_Files\fwd_curves_3.asc

Warning: Multiple definitions of model "cpw41200s020b" Type: Diode
Warning: Multiple definitions of model "cpw41200s015b" Type: Diode
Warning: Multiple definitions of model "cpw41200s010b" Type: Diode
Warning: Multiple definitions of model "cpw41200s008b" Type: Diode
Warning: Multiple definitions of model "cpw41200s005b" Type: Diode
Warning: Multiple definitions of model "cpw41200s002b" Type: Diode
Direct Newton iteration for .op point succeeded.

Date: Wed Mar 11 17:51:41 2020
Total elapsed time: 0.142 seconds.

tnom = 27
temp = 27
method = modified trap
totiter = 2105
traniter = 2101
tranpoints = 1050
accept = 1050
rejected = 0
matrix size = 54
fillins = 12
solver = Normal
Matrix Compiler1: 2.46 KB object code size  0.4/0.3/[0.1]
Matrix Compiler2: 3.85 KB object code size  0.3/0.5/[0.2]

