Circuit: * C:\Users\andre\Documents\Research\Automated_SPICE_Modeling\UT_Framework_3.0.1\SPICE_Files\fwd_curves_2.asc

Questionable use of curly braces in "b§rd dx d1 r={v(nd,0)}"
    Error: undefined symbol in: "[v](nd,0)"
Questionable use of curly braces in "b§rg gx g1 r={v(ng,0)}"
    Error: undefined symbol in: "[v](ng,0)"
Questionable use of curly braces in "b§rs s1 sx r={v(ns,0)}"
    Error: undefined symbol in: "[v](ns,0)"
Questionable use of curly braces in "b§rd dx d1 r={v(nd,0)}"
    Error: undefined symbol in: "[v](nd,0)"
Questionable use of curly braces in "b§rg gx g1 r={v(ng,0)}"
    Error: undefined symbol in: "[v](ng,0)"
Questionable use of curly braces in "b§rs s1 sx r={v(ns,0)}"
    Error: undefined symbol in: "[v](ns,0)"
Questionable use of curly braces in "b§rd dx d1 r={v(nd,0)}"
    Error: undefined symbol in: "[v](nd,0)"
Questionable use of curly braces in "b§rg gx g1 r={v(ng,0)}"
    Error: undefined symbol in: "[v](ng,0)"
Questionable use of curly braces in "b§rs s1 sx r={v(ns,0)}"
    Error: undefined symbol in: "[v](ns,0)"
Questionable use of curly braces in "b§rd dx d1 r={v(nd,0)}"
    Error: undefined symbol in: "[v](nd,0)"
Questionable use of curly braces in "b§rg gx g1 r={v(ng,0)}"
    Error: undefined symbol in: "[v](ng,0)"
Questionable use of curly braces in "b§rs s1 sx r={v(ns,0)}"
    Error: undefined symbol in: "[v](ns,0)"
Questionable use of curly braces in "b§rd dx d1 r={v(nd,0)}"
    Error: undefined symbol in: "[v](nd,0)"
Questionable use of curly braces in "b§rg gx g1 r={v(ng,0)}"
    Error: undefined symbol in: "[v](ng,0)"
Questionable use of curly braces in "b§rs s1 sx r={v(ns,0)}"
    Error: undefined symbol in: "[v](ns,0)"
Questionable use of curly braces in "b§rd dx d1 r={v(nd,0)}"
    Error: undefined symbol in: "[v](nd,0)"
Questionable use of curly braces in "b§rg gx g1 r={v(ng,0)}"
    Error: undefined symbol in: "[v](ng,0)"
Questionable use of curly braces in "b§rs s1 sx r={v(ns,0)}"
    Error: undefined symbol in: "[v](ns,0)"
Questionable use of curly braces in "b§rd dx d1 r={v(nd,0)}"
    Error: undefined symbol in: "[v](nd,0)"
Questionable use of curly braces in "b§rg gx g1 r={v(ng,0)}"
    Error: undefined symbol in: "[v](ng,0)"
Questionable use of curly braces in "b§rs s1 sx r={v(ns,0)}"
    Error: undefined symbol in: "[v](ns,0)"
Questionable use of curly braces in "b§rd dx d1 r={v(nd,0)}"
    Error: undefined symbol in: "[v](nd,0)"
Questionable use of curly braces in "b§rg gx g1 r={v(ng,0)}"
    Error: undefined symbol in: "[v](ng,0)"
Questionable use of curly braces in "b§rs s1 sx r={v(ns,0)}"
    Error: undefined symbol in: "[v](ns,0)"
Questionable use of curly braces in "b§rd dx d1 r={v(nd,0)}"
    Error: undefined symbol in: "[v](nd,0)"
Questionable use of curly braces in "b§rg gx g1 r={v(ng,0)}"
    Error: undefined symbol in: "[v](ng,0)"
Questionable use of curly braces in "b§rs s1 sx r={v(ns,0)}"
    Error: undefined symbol in: "[v](ns,0)"
Questionable use of curly braces in "b§rd dx d1 r={v(nd,0)}"
    Error: undefined symbol in: "[v](nd,0)"
Questionable use of curly braces in "b§rg gx g1 r={v(ng,0)}"
    Error: undefined symbol in: "[v](ng,0)"
Questionable use of curly braces in "b§rs s1 sx r={v(ns,0)}"
    Error: undefined symbol in: "[v](ns,0)"
Questionable use of curly braces in "b§rd dx d1 r={v(nd,0)}"
    Error: undefined symbol in: "[v](nd,0)"
Questionable use of curly braces in "b§rg gx g1 r={v(ng,0)}"
    Error: undefined symbol in: "[v](ng,0)"
Questionable use of curly braces in "b§rs s1 sx r={v(ns,0)}"
    Error: undefined symbol in: "[v](ns,0)"
Warning: Multiple definitions of model "cpw41200s020b" Type: Diode
Warning: Multiple definitions of model "cpw41200s015b" Type: Diode
Warning: Multiple definitions of model "cpw41200s010b" Type: Diode
Warning: Multiple definitions of model "cpw41200s008b" Type: Diode
Warning: Multiple definitions of model "cpw41200s005b" Type: Diode
Warning: Multiple definitions of model "cpw41200s002b" Type: Diode
Singular matrix:  Check node m13:d1
   Iteration No. 1
Direct Newton iteration failed to find .op point.  (Use ".option noopiter" to skip.)
Starting Gmin stepping
Gmin = 10
Gmin = 1.07374
Gmin = 0.115292
Gmin = 0.0123794
Gmin = 0.00132923
Gmin = 0.000142725
Gmin = 1.5325e-005
Gmin = 1.6455e-006
Gmin = 1.76685e-007
Gmin = 1.89714e-008
Gmin = 2.03704e-009
vernier = 0.5
vernier = 0.25
vernier = 0.125
Gmin = 9.15632e-010
vernier = 0.0625
vernier = 0.03125
vernier = 0.015625
vernier = 0.0078125
vernier = 0.00390625
vernier = 0.00195313
vernier = 0.000976563
vernier = 0.000488281
Gmin = 0
Gmin stepping succeeded in finding the operating point.

Changing Tseed to 1e-008
Heightened Def Con from 1e-008 ++++++++++++++++++++++++++++++++++++++++++++++++++Fatal Error: Analysis:  Time step too small; time = 1e-008, timestep = 1.25e-019: trouble with node "m4:d1"

