Circuit: * C:\Users\andre\Documents\Research\Automated_SPICE_Modeling\UT_Framework_3.0.1\SPICE_Files\rev_curves.asc

Questionable use of curly braces in "b§rd dx d1 r={v(nd,0)}"
    Error: undefined symbol in: "[v](nd,0)"
Questionable use of curly braces in "b§rg gx g1 r={v(ng,0)}"
    Error: undefined symbol in: "[v](ng,0)"
Questionable use of curly braces in "b§rs s1 sx r={v(ns,0)}"
    Error: undefined symbol in: "[v](ns,0)"
.dc sweep increment has wrong sign -- fixing...
.step vgs=-5
.step vgs=0
.step vgs=5
.step vgs=10
.step vgs=15
.step vgs=20

Date: Thu Mar 12 09:17:36 2020
Total elapsed time: 0.101 seconds.

tnom = 27
temp = 27
method = trap
totiter = 1057
traniter = 0
tranpoints = 0
accept = 0
rejected = 0
matrix size = 22
fillins = 47
solver = Normal
Matrix Compiler1: 3.76 KB object code size  0.4/0.2/[0.1]
Matrix Compiler2: 2.46 KB object code size  0.2/0.2/[0.2]

