Circuit: * C:\Users\andre\Documents\Research\Automated_SPICE_Modeling\UT_Framework_3.0.1\SPICE_Files\rev_fwd_curves.asc

Warning: Multiple definitions of model "cpw41200s020b" Type: Diode
Warning: Multiple definitions of model "cpw41200s015b" Type: Diode
Warning: Multiple definitions of model "cpw41200s010b" Type: Diode
Warning: Multiple definitions of model "cpw41200s008b" Type: Diode
Warning: Multiple definitions of model "cpw41200s005b" Type: Diode
Warning: Multiple definitions of model "cpw41200s002b" Type: Diode
Direct Newton iteration for .op point succeeded.

Date: Wed Jan 22 10:40:50 2020
Total elapsed time: 0.222 seconds.

tnom = 27
temp = 27
method = modified trap
totiter = 2160
traniter = 2156
tranpoints = 1050
accept = 1050
rejected = 0
matrix size = 60
fillins = 60
solver = Normal
Matrix Compiler1: 5.50 KB object code size  0.9/0.5/[0.2]
Matrix Compiler2: 5.42 KB object code size  0.4/0.6/[0.2]

