Circuit: * C:\Users\andre\Documents\Research\Automated_SPICE_Modeling\UT_Framework_3.0.1\SPICE_Files\thermal_test_file2.asc

.OP point found by inspection.

Date: Fri Mar 13 10:57:42 2020
Total elapsed time: 0.047 seconds.

tnom = 27
temp = 27
method = modified trap
totiter = 2236
traniter = 2236
tranpoints = 1119
accept = 1119
rejected = 0
matrix size = 1
fillins = 0
solver = Normal
Matrix Compiler1: off  0.0/[0.0]/0.0
Matrix Compiler2: 43 bytes object code size  0.0/0.0/[0.0]

