Circuit: * C:\Users\andre\Documents\Research\Automated_SPICE_Modeling\UT_Framework_3.0.1\SPICE_Files\thermal_test_file.asc

Idr1: Removing PWL point (0.00100694,20000)
Idr1: Removing PWL point (0.00106421,0)
Idr1: Removing PWL point (0.00111699,18029.6)
Idr1: Removing PWL point (0.00118052,0)
Idr1: Removing PWL point (0.00123906,16253.2)
Idr1: Removing PWL point (0.00130954,0)
Idr1: Removing PWL point (0.00137448,14651.9)
Idr1: Removing PWL point (0.00145265,0)
Idr1: Removing PWL point (0.0015247,13208.4)
Idr1: Removing PWL point (0.00161141,0)
Idr1: Removing PWL point (0.00169133,11907.1)
Idr1: Removing PWL point (0.00178753,0)
Idr1: Removing PWL point (0.00187617,10734)
Idr1: Removing PWL point (0.00198288,0)
Idr1: Removing PWL point (0.00208122,9676.42)
Idr1: Removing PWL point (0.00219959,0)
Idr1: Removing PWL point (0.00230868,8723.08)
Idr1: Removing PWL point (0.00243999,0)
Idr1: Removing PWL point (0.00256099,7863.66)
Idr1: Removing PWL point (0.00270665,0)
Idr1: Removing PWL point (0.00284088,7088.91)
Idr1: Removing PWL point (0.00300246,0)
Idr1: Removing PWL point (0.00315136,6390.5)
Idr1: Removing PWL point (0.0033306,0)
Idr1: Removing PWL point (0.00349578,5760.89)
Idr1: Removing PWL point (0.0036946,0)
Idr1: Removing PWL point (0.00387783,5193.31)
Idr1: Removing PWL point (0.00409838,0)
Idr1: Removing PWL point (0.00430164,4681.65)
Idr1: Removing PWL point (0.0045463,0)
Idr1: Removing PWL point (0.00477176,4220.41)
Idr1: Removing PWL point (0.00504316,0)
Idr1: Removing PWL point (0.00529327,3804.6)
Idr1: Removing PWL point (0.00559433,0)
Idr1: Removing PWL point (0.00587177,3429.76)
Idr1: Removing PWL point (0.00620573,0)
Idr1: Removing PWL point (0.00651349,3091.86)
Idr1: Removing PWL point (0.00688395,0)
Idr1: Removing PWL point (0.00722535,2787.24)
Idr1: Removing PWL point (0.0076363,0)
Idr1: Removing PWL point (0.00801501,2512.63)
Idr1: Removing PWL point (0.00847087,0)
Idr1: Removing PWL point (0.00889097,2265.08)
Idr1: Removing PWL point (0.00939665,0)
Idr1: Removing PWL point (0.00986266,2041.92)
Idr1: Removing PWL point (0.0104236,0)
Idr1: Removing PWL point (0.0109405,1840.75)
Idr1: Removing PWL point (0.0115628,0)
Idr1: Removing PWL point (0.0121362,1659.39)
Idr1: Removing PWL point (0.0128265,0)
Idr1: Removing PWL point (0.0134626,1495.9)
Idr1: Removing PWL point (0.0142283,0)
Idr1: Removing PWL point (0.0149339,1348.52)
Idr1: Removing PWL point (0.0157833,0)
Idr1: Removing PWL point (0.0165661,1215.66)
Idr1: Removing PWL point (0.0175083,0)
Idr1: Removing PWL point (0.0183766,1095.89)
Idr1: Removing PWL point (0.0194217,0)
Idr1: Removing PWL point (0.0203849,987.924)
Idr1: Removing PWL point (0.0215443,0)
Idr1: Removing PWL point (0.0226128,890.592)
Idr1: Removing PWL point (0.0238989,0)
Idr1: Removing PWL point (0.0250842,802.848)
Idr1: Removing PWL point (0.0265108,0)
Idr1: Removing PWL point (0.0278256,723.75)
Idr1: Removing PWL point (0.0294082,0)
Idr1: Removing PWL point (0.0308666,652.444)
Idr1: Removing PWL point (0.0326222,0)
Idr1: Removing PWL point (0.0342401,588.164)
Idr1: Removing PWL point (0.0361875,0)
Idr1: Removing PWL point (0.0379822,530.217)
Idr1: Removing PWL point (0.0401424,0)
Idr1: Removing PWL point (0.0421332,477.979)
Idr1: Removing PWL point (0.0445296,0)
Idr1: Removing PWL point (0.046738,430.887)
Idr1: Removing PWL point (0.0493962,0)
Idr1: Removing PWL point (0.0518459,388.435)
Idr1: Removing PWL point (0.0547947,0)
Idr1: Removing PWL point (0.0575122,350.165)
Idr1: Removing PWL point (0.0607832,0)
Idr1: Removing PWL point (0.0637977,315.666)
Idr1: Removing PWL point (0.0674262,0)
Idr1: Removing PWL point (0.0707701,284.566)
Idr1: Removing PWL point (0.0747952,0)
Idr1: Removing PWL point (0.0785046,256.53)
Idr1: Removing PWL point (0.0829696,0)
Idr1: Removing PWL point (0.0870843,231.256)
Idr1: Removing PWL point (0.0920373,0)
Idr1: Removing PWL point (0.0966017,208.472)
Idr1: Removing PWL point (0.102096,0)
Idr1: Removing PWL point (0.107159,187.933)
Idr1: Removing PWL point (0.113254,0)
Idr1: Removing PWL point (0.118871,169.417)
Idr1: Removing PWL point (0.125632,0)
Idr1: Removing PWL point (0.131862,152.726)
Idr1: Removing PWL point (0.139362,0)
Idr1: Removing PWL point (0.146273,137.679)
Idr1: Removing PWL point (0.154593,0)
Idr1: Removing PWL point (0.16226,124.115)
Idr1: Removing PWL point (0.171488,0)
Idr1: Removing PWL point (0.179993,111.887)
Idr1: Removing PWL point (0.19023,0)
Idr1: Removing PWL point (0.199664,100.863)
Idr1: Removing PWL point (0.21102,0)
Idr1: Removing PWL point (0.221486,90.9259)
Idr1: Removing PWL point (0.234083,0)
Idr1: Removing PWL point (0.245692,81.9677)
Idr1: Removing PWL point (0.259666,0)
Idr1: Removing PWL point (0.272543,73.892)
Idr1: Removing PWL point (0.288044,0)
Idr1: Removing PWL point (0.302329,66.612)
Idr1: Removing PWL point (0.319525,0)
Idr1: Removing PWL point (0.335371,60.0492)
Idr1: Removing PWL point (0.354446,0)
Idr1: Removing PWL point (0.372024,54.133)
Idr1: Removing PWL point (0.393183,0)
Idr1: Removing PWL point (0.412682,48.7997)
Idr1: Removing PWL point (0.436154,0)
Idr1: Removing PWL point (0.457784,43.9919)
Idr1: Removing PWL point (0.483821,0)
Idr1: Removing PWL point (0.507815,39.6577)
Idr1: Removing PWL point (0.536698,0)
Idr1: Removing PWL point (0.563314,35.7505)
Idr1: Removing PWL point (0.595353,0)
Idr1: Removing PWL point (0.624879,32.2283)
Idr1: Removing PWL point (0.660419,0)
Idr1: Removing PWL point (0.693172,29.0531)
Idr1: Removing PWL point (0.732597,0)
Idr1: Removing PWL point (0.768928,26.1907)
Idr1: Removing PWL point (0.812662,0)
Idr1: Removing PWL point (0.852964,23.6103)
Idr1: Removing PWL point (0.901478,0)
Idr1: Removing PWL point (0.946185,21.2842)
.OP point found by inspection.

Date: Fri Mar 13 11:00:16 2020
Total elapsed time: 0.018 seconds.

tnom = 27
temp = 27
method = modified trap
totiter = 4414
traniter = 4414
tranpoints = 2208
accept = 2208
rejected = 0
matrix size = 1
fillins = 0
solver = Normal
Matrix Compiler1: off  0.0/0.0/[0.0]
Matrix Compiler2: 43 bytes object code size  0.0/0.0/[0.0]

